<?xml version="1.0" ?>
<configuration>
   <input>
      <net-file value="networks.net.xml"/>
   </input>
   <time>
      <begin value="0"/>
      <end value="3600"/>
   </time>
   <processing>
      <step-length value="0.25"/>
   </processing>
</configuration>
