<configuration>
    <input>
<net-file value="network.net.xml"/>
<route-files value="traffic_routes.rou.xml"/>
 <additional-files value="traffic_lights.add.xml"/>

    </input>
    <time>
        <begin value="10"/>
        <end value="1000"/>
    </time>
</configuration>
