<?xml version="1.0" encoding="UTF-8"?>
<routes>
    <!-- تعریف نوع خودرو -->
    <vType id="car" vClass="passenger" color="1,0,0" />

    <!-- تعریف مسیرها -->
    <route id="route1" edges="edge1 edge2" />
    <route id="route2" edges="edge2 edge3" />
    <route id="route3" edges="edge3 edge4" />
    <route id="route4" edges="edge4 edge1" />

    <!-- خودروهایی که وارد می‌شوند -->
    <vehicle id="vehicle0" type="car" route="route1" depart="0" />
    <vehicle id="vehicle1" type="car" route="route2" depart="10" />
    <vehicle id="vehicle2" type="car" route="route3" depart="20" />
    <vehicle id="vehicle3" type="car" route="route4" depart="30" />

    <vehicle id="vehicle4" type="car" route="route1" depart="40" />
    <vehicle id="vehicle5" type="car" route="route2" depart="50" />
    <vehicle id="vehicle6" type="car" route="route3" depart="60" />
    <vehicle id="vehicle7" type="car" route="route4" depart="70" />

    <vehicle id="vehicle8" type="car" route="route1" depart="80" />
    <vehicle id="vehicle9" type="car" route="route2" depart="90" />
    <vehicle id="vehicle10" type="car" route="route3" depart="100" />
    <vehicle id="vehicle11" type="car" route="route4" depart="110" />

    <vehicle id="vehicle12" type="car" route="route1" depart="120" />
    <vehicle id="vehicle13" type="car" route="route2" depart="130" />
    <vehicle id="vehicle14" type="car" route="route3" depart="140" />
    <vehicle id="vehicle15" type="car" route="route4" depart="150" />
</routes>



