<?xml version="1.0" encoding="UTF-8"?>
<net version="1.9">
    
  

</net>
