<routes>
    <vType id="car" accel="2.6" decel="4.5" maxSpeed="50" length="5"/>
    <flow id="main_flow" type="car" begin="0" end="3600" number="100" from="E1" to="E2"/>
</routes>
